475
Atoms. Timestep: 0
H 3.143180 25.200600 24.172200
H 3.110980 25.218700 24.148600
H 4.134690 25.071400 24.157000
H 3.490570 26.109900 23.783100
H 3.523620 26.089600 23.802400
H 4.292950 25.539600 23.959100
H 5.095340 24.969300 24.135100
H 5.126200 24.942200 24.141800
H 5.721340 25.677500 23.817500
H 4.729840 25.806700 23.832700
H 6.011460 25.323600 23.947500
H 5.209070 25.893900 23.771500
H 4.300150 26.695400 23.512000
H 4.333470 26.671200 23.523600
H 5.355730 26.789500 23.410400
H 5.322810 26.818500 23.407900
H 3.935910 23.471600 24.790400
H 3.906170 23.492600 24.771600
H 3.263100 24.260700 24.510400
H 3.294090 24.242300 24.533800
H 4.867880 23.120100 24.862300
H 4.896670 23.094900 24.873100
H 5.918930 23.213200 24.759900
H 5.890530 23.243200 24.758100
H 4.531060 24.206900 24.466100
H 4.981610 24.044700 24.498700
H 5.522560 24.077700 24.450900
H 4.179220 24.615000 24.322700
H 3.255950 25.870100 25.913100
H 3.239910 25.864900 25.953100
H 3.265770 25.863000 25.965500
H 5.897730 24.399000 24.311100
H 4.256640 25.728400 25.975100
H 4.231070 25.733400 25.970600
H 4.312910 25.255800 26.116400
H 5.237580 25.604000 25.962300
H 5.222230 25.601800 25.988000
H 5.247510 25.593800 25.984700
H 3.660850 26.756300 25.622400
H 3.654630 26.761500 25.569000
H 3.634930 26.758700 25.611200
H 5.506660 27.452600 25.293400
H 4.446110 26.182700 25.765700
H 5.370770 26.531000 25.611600
H 5.829910 26.340600 25.696600
H 4.864290 26.466000 25.680600
H 4.838750 26.472100 25.679100
H 5.855150 26.331400 25.690200
H 4.477460 27.342700 25.330300
H 5.481110 27.459900 25.294800
H 4.455260 27.342500 25.370200
H 4.481070 27.338200 25.376400
H 5.503960 27.458000 25.260900
H 4.006870 24.124200 26.570900
H 4.032210 24.118700 26.573800
H 4.016070 24.131500 26.545200
H 6.013940 23.849500 26.593000
H 5.997700 23.865400 26.594300
H 5.989190 23.861000 26.605800
H 4.988350 23.735100 26.676000
H 4.963350 23.743700 26.681300
H 4.971190 23.750100 26.663700
H 3.388250 24.907500 26.270400
H 3.401700 24.897500 26.313700
H 3.376050 24.900600 26.304400
H 6.029050 25.025300 26.159000
H 5.630720 24.721700 26.288900
H 5.605710 24.731400 26.296900
H 5.104390 24.677100 26.313000
H 4.639860 24.856300 26.279200
H 4.614550 24.863000 26.279500
H 2.738040 27.890700 29.744000
H 2.732510 27.892300 29.762400
H 4.238160 25.710700 30.749100
H 5.308600 25.799400 30.753400
H 4.275910 25.730600 30.728300
H 5.271620 25.765400 30.777000
H 3.323310 26.140100 30.524500
H 3.354690 26.147300 30.505800
H 2.772200 26.938600 30.163300
H 2.791790 26.938000 30.145500
H 3.726510 27.228100 30.089100
H 4.023320 26.845100 30.248700
H 3.714990 27.716800 29.867800
H 5.635130 27.807100 29.940700
H 5.413800 26.903700 30.307800
H 5.000270 26.671100 30.372500
H 4.459490 26.614200 30.382000
H 4.680820 27.517600 30.014900
H 5.668890 27.368900 30.115300
H 4.691940 27.542800 29.991500
H 3.214870 28.745600 29.429100
H 3.207830 28.750300 29.408800
H 4.075280 29.286200 29.229700
H 3.947840 28.131600 29.722000
H 4.090020 29.269800 29.252800
H 5.360570 28.240600 29.734400
H 4.383610 28.414500 29.610600
H 4.902150 28.421100 29.647800
H 5.107980 29.355100 29.254800
H 5.123480 29.324600 29.280700
H 6.038330 28.895200 29.505300
H 6.029190 28.938300 29.477300
H 8.206610 3.510760 7.133650
H 8.203600 3.511920 7.130180
H 8.414670 2.667260 7.696710
H 8.405000 2.666900 7.693390
H 8.807040 3.830490 7.866650
H 8.804520 3.827510 7.864560
H 8.324230 4.526060 6.960530
H 8.320320 4.525600 6.963410
H 8.725320 5.439860 7.231590
H 8.734570 5.437590 7.229890
H 9.324670 6.002260 7.866090
H 9.313110 6.008560 7.866340
H 8.874470 2.217430 8.499230
H 8.888760 2.221120 8.501710
H 9.486220 2.283940 9.331800
H 9.501820 2.291870 9.332950
H 9.139960 3.180260 8.549090
H 9.148110 3.185670 8.550680
H 9.407470 4.150220 8.599640
H 9.405440 4.143100 8.598940
H 9.748540 3.505390 9.283670
H 9.740880 3.495850 9.283470
H 9.066390 4.795040 7.915620
H 9.070010 4.790340 7.914420
H 9.670930 5.105930 8.648790
H 9.666820 5.114760 8.648610
H 10.006400 4.458690 9.333320
H 10.007900 4.469940 9.332640
H 10.400300 5.633170 9.502570
H 10.405900 5.619290 9.504490
H 10.486700 3.760130 10.237300
H 10.494600 3.774830 10.235900
H 10.076300 2.848610 9.967990
H 10.089600 2.860570 9.967700
H 10.607300 4.774280 10.067700
H 10.608300 4.789670 10.065600
H 7.392680 2.983840 18.599700
H 8.284450 3.291470 18.173200
H 9.314870 3.221790 18.101100
H 10.207800 2.793460 18.402700
H 6.879680 1.645360 19.994500
H 7.395910 0.973162 20.589000
H 7.840180 2.132320 19.381100
H 6.878500 2.381320 19.266300
H 9.504850 2.338380 18.949300
H 8.098890 1.428240 20.042400
H 8.801870 1.883310 19.495900
H 9.060580 1.179230 20.157200
H 10.724100 2.121260 18.997200
H 9.763560 1.634300 19.610600
H 10.725300 1.385300 19.725400
H 10.211100 0.782780 20.392000
H 8.543160 2.587390 18.834500
H 9.936420 6.068770 8.698650
H 9.926170 6.079310 8.697580
H 11.500400 8.650510 11.400700
H 11.490100 8.664320 11.427800
H 8.042770 6.752000 18.172100
H 8.056910 6.763490 18.144900
H 8.043640 6.754300 18.167300
H 8.052480 6.756040 18.133300
H 8.641540 7.448140 18.580100
H 8.628730 7.442120 18.577500
H 8.624270 7.444070 18.599800
H 8.631100 7.445160 18.588800
H 9.526230 7.680120 18.175700
H 9.519370 7.675480 18.187200
H 9.507570 7.676130 18.192400
H 8.902620 6.813230 17.545300
H 8.884700 6.794460 17.565000
H 8.882810 6.805830 17.569400
H 8.897570 6.819510 17.543200
H 9.516880 7.665050 18.180100
H 9.809380 7.216120 17.357400
H 9.815220 7.194090 17.349900
H 9.833780 7.222760 17.352800
H 9.826290 7.227430 17.336100
H 10.596400 7.874910 17.607500
H 10.574200 7.872920 17.592900
H 10.585900 7.846100 17.579700
H 10.089100 8.368190 18.620100
H 10.095600 8.361560 18.631300
H 10.104300 8.355900 18.601500
H 10.110900 8.364770 18.611000
H 10.594200 7.877940 17.578900
H 10.995500 8.596750 18.206600
H 10.990100 8.575790 18.192800
H 10.972400 8.600250 18.212800
H 10.986300 8.594920 18.241100
H 7.529550 7.074370 18.979800
H 7.514360 7.069050 19.004000
H 7.511150 7.066520 18.959400
H 7.517400 7.084370 18.995500
H 7.439160 7.672020 19.842200
H 7.446980 7.696220 19.827700
H 7.456800 7.668860 19.824200
H 7.423670 7.661470 19.802100
H 7.813500 8.381490 20.435700
H 7.858150 8.387660 20.452000
H 7.837320 8.399350 20.462100
H 7.851250 8.425920 20.440800
H 9.226170 8.132800 19.015400
H 9.205770 8.136130 19.027500
H 9.218550 8.136010 19.010300
H 9.204970 8.128200 19.021600
H 8.332770 7.916120 19.419000
H 8.341480 7.900830 19.419800
H 8.314320 7.894830 19.411900
H 8.322460 7.904080 19.434900
H 8.890570 8.580910 19.856000
H 8.920220 8.606970 19.840400
H 8.926110 8.585490 19.855100
H 8.903960 8.596140 19.862600
H 9.554770 9.446090 20.487600
H 9.528730 9.466440 20.485600
H 9.552400 9.477550 20.455500
H 9.507320 9.443170 20.497900
H 9.810800 8.817460 19.450700
H 9.806010 8.826860 19.431700
H 9.781220 8.814270 19.465700
H 9.787260 8.828200 19.455200
H 10.898800 9.189870 19.083800
H 10.919700 9.187650 19.025000
H 10.922800 9.191230 19.051100
H 10.897200 9.203220 19.051000
H 10.395400 9.502120 19.886000
H 10.393500 9.517710 19.853200
H 10.357500 9.500350 19.909900
H 10.368800 9.520270 19.882900
H 8.576170 9.033630 20.690400
H 8.626060 9.038170 20.694800
H 8.621890 9.077930 20.670600
H 8.602160 9.056150 20.697600
H 7.109220 24.683700 24.111300
H 7.079700 24.719900 24.121600
H 6.927580 25.677900 23.759800
H 6.958310 25.642000 23.749700
H 6.117710 24.813000 24.126600
H 6.284510 26.446000 23.498600
H 6.316490 26.412800 23.493200
H 6.728780 23.794700 24.481100
H 6.700120 23.828700 24.487000
H 6.162240 25.952300 25.808300
H 7.204550 25.338600 26.023000
H 7.229240 25.324700 26.004000
H 7.219200 25.337900 26.011500
H 6.213390 25.470200 26.005500
H 6.238370 25.459300 25.994300
H 6.459080 27.076500 25.379500
H 6.437590 27.079400 25.405200
H 7.093310 26.290200 25.655800
H 7.068410 26.302900 25.671700
H 7.086910 26.300500 25.654200
H 6.462800 27.069000 25.395700
H 6.820520 24.446600 26.355600
H 6.834160 24.431400 26.347000
H 6.809530 24.444800 26.364900
H 6.629130 27.143000 30.267400
H 6.176050 26.335400 30.574300
H 6.146780 26.289700 30.600700
H 6.645850 27.194900 30.239100
H 8.288870 33.384700 20.890600
H 9.319290 33.315000 20.818500
H 6.589440 28.096600 29.866500
H 6.592090 28.147600 29.837600
H 15.710600 1.564300 0.901077
H 15.828200 1.943030 1.857390
H 14.892100 3.388160 0.839862
H 15.119400 3.522530 1.804380
H 15.360200 2.665590 1.348630
H 14.651400 4.245100 1.295610
H 14.410600 5.102040 1.751370
H 14.073700 5.212020 0.778648
H 15.346700 3.656910 2.768900
H 15.695000 2.708970 2.541060
H 14.876600 4.532830 2.479850
H 12.857900 3.532270 6.041320
H 12.858000 3.512300 6.050350
H 13.116500 3.978080 6.002680
H 12.039000 2.619810 5.788690
H 12.038200 2.640280 5.784330
H 12.036700 2.641730 5.779430
H 12.019600 2.646980 5.793380
H 12.051900 2.638950 5.758450
H 12.039500 2.646710 5.780830
H 12.192300 3.552010 5.291100
H 12.173700 3.555460 5.312360
H 12.179500 3.556480 5.306990
H 12.172500 3.534600 5.322700
H 12.182000 3.549510 5.310590
H 12.158800 3.559480 5.324580
H 13.122300 3.981020 5.988970
H 12.863500 3.536450 6.036200
H 12.848100 3.532580 6.048560
H 12.677300 4.456760 5.235940
H 12.673400 4.437440 5.246650
H 12.667500 4.457570 5.243760
H 12.690300 4.447740 5.229470
H 12.696100 4.453440 5.217460
H 12.686100 4.455520 5.223940
H 13.407500 5.086420 5.580930
H 13.412700 5.104130 5.570650
H 13.423500 5.102930 5.553920
H 13.409200 5.100600 5.572570
H 13.427100 5.094280 5.562710
H 13.428300 5.101700 5.557280
H 12.904200 1.694120 7.301470
H 12.890500 1.700970 7.330750
H 12.900900 1.707610 7.322290
H 12.889500 1.695100 7.322150
H 12.901500 1.694040 7.313760
H 12.909200 1.672370 7.320050
H 12.312400 1.958920 6.494300
H 12.297500 1.963660 6.523770
H 12.287000 1.964570 6.524540
H 12.308600 1.938190 6.519780
H 12.303500 1.969970 6.518480
H 12.303100 1.960400 6.511990
H 13.226300 2.601370 7.030970
H 13.216500 2.604700 7.053320
H 12.800200 3.073780 6.259470
H 12.790400 3.074350 6.280110
H 12.926100 2.714100 6.648890
H 12.922600 2.734740 6.641130
H 12.912200 2.735130 6.648540
H 12.925500 2.743200 6.641940
H 13.547500 3.516420 6.765400
H 13.542600 3.508430 6.775880
H 13.543600 3.490010 6.778010
H 13.542100 3.509070 6.770280
H 13.548400 3.508610 6.760480
H 13.537400 3.505690 6.772530
H 13.611700 2.691800 7.376550
H 13.601500 2.708230 7.372510
H 13.606800 2.711540 7.370090
H 13.609500 2.723170 7.371150
H 14.226200 3.485880 7.499240
H 14.229200 3.467710 7.505670
H 14.231500 3.496390 7.494610
H 14.226800 3.478790 7.496500
H 13.968700 3.038770 7.549090
H 13.974600 3.036200 7.531990
H 14.294800 3.942500 7.271660
H 14.296700 3.943440 7.261490
H 13.477400 4.306600 6.170460
H 13.485500 4.309670 6.159660
H 13.473300 4.303140 6.172550
H 13.475500 4.288210 6.179470
H 14.162600 4.276240 6.896520
H 14.169500 4.289640 6.888870
H 14.161500 4.283410 6.899420
H 14.161100 4.265920 6.907130
H 13.870600 4.415850 6.489980
H 13.868700 4.412160 6.498450
H 15.055600 4.386130 7.749980
H 15.055300 4.364390 7.751670
H 15.047000 4.376580 7.767440
H 15.047400 4.376420 7.761130
H 15.045000 4.378270 7.762500
H 15.048300 4.360210 7.767330
H 14.182700 5.324110 6.226790
H 14.784400 5.058300 7.026660
H 14.791600 5.062860 7.012330
H 14.787700 5.053190 7.028000
H 14.781000 5.057750 7.028570
H 14.778600 5.041830 7.036240
H 14.787900 5.046800 7.020510
H 14.178000 5.307640 6.235970
H 14.194200 5.325230 6.208520
H 14.194700 5.315890 6.221020
H 14.192700 5.323100 6.219490
H 14.185300 5.316270 6.222900
H 13.658200 1.922580 7.989060
H 13.665700 1.910780 7.972490
H 13.668600 1.915520 7.963680
H 13.679800 1.893600 7.975090
H 13.671500 1.914010 7.969910
H 13.671500 1.929910 7.976890
H 14.409000 2.577320 8.306870
H 14.400800 2.563780 8.303490
H 14.406800 2.561380 8.304610
H 14.407400 2.553810 8.301290
H 14.394900 2.569120 8.322300
H 14.413900 2.542580 8.309370
H 14.903200 3.467340 8.241180
H 14.916100 3.451890 8.220470
H 14.915600 3.476360 8.223820
H 14.904600 3.465210 8.229860
H 14.910400 3.462690 8.228200
H 14.914800 3.445420 8.233320
H 14.907600 2.243480 32.039800
H 15.373600 1.674270 32.768200
H 15.132900 2.531220 33.224000
H 14.089200 4.067340 31.978500
H 14.437500 3.119410 31.750700
H 14.664800 3.253780 32.715200
H 14.424100 4.110730 33.171000
H 13.956000 4.833290 32.662200
H 1.899580 9.723130 22.462600
H 0.902338 9.731270 21.726800
H 0.898970 9.747690 21.733200
H 1.204990 10.343500 20.692600
H 1.201850 10.365400 20.702300
H 1.783960 10.169400 21.535700
H 1.790180 10.143800 21.523000
H 0.755235 9.269210 22.599400
H 1.503880 9.194060 23.259600
H 1.496490 9.212430 23.268300
H 0.759186 9.256380 22.595100
H 0.709091 8.698390 23.700600
H 0.703937 8.707930 23.703200
H 1.891810 9.747360 22.474900
H 10.889700 15.014200 2.992340
H 10.892800 15.003000 3.007180
H 10.887800 15.009900 3.007870
H 11.509900 16.843600 3.488160
H 11.525100 16.848000 3.475480
H 11.508800 16.850400 3.484260
H 10.236900 15.322000 3.741910
H 10.235400 15.330400 3.745040
H 10.237300 15.338700 3.727850
H 11.207400 15.931100 3.233910
H 10.872100 16.090400 3.614650
H 10.873400 16.082800 3.615040
H 10.727600 16.457800 3.935600
H 10.771400 16.916100 4.158450
H 10.773200 16.924300 4.157600
H 9.930030 16.067600 4.395730
H 9.924150 16.058200 4.412330
H 9.922120 16.048800 4.408650
H 10.032800 16.988500 4.828740
H 10.037500 16.998200 4.830950
H 11.045200 17.374700 4.177170
H 11.407900 17.676800 4.031570
H 11.409900 17.684300 4.027210
H 11.305800 18.510100 4.574990
H 11.337900 18.515000 4.564660
H 10.545200 17.898700 4.888720
H 10.539300 17.889400 4.889620
H 10.565400 17.901400 4.878860
H 11.311000 18.518200 4.570170
H 10.050100 17.005600 4.817030
H 11.202400 29.072000 2.844900
H 11.193900 29.066800 2.838810
H 10.997500 28.418100 3.620920
H 10.989400 28.417900 3.619130
H 11.400100 29.221700 4.059160
H 11.395400 29.223000 4.051630
H 11.002400 28.200400 4.631230
H 11.517400 29.243700 5.052020
H 11.515500 29.250300 5.044020
H 11.008400 28.194800 4.631790
H 11.229600 28.472600 5.603910
H 11.232100 28.462100 5.606650
H 10.805900 16.500900 19.899100
H 10.818700 15.580300 20.289500
H 10.078600 16.211500 20.521400
H 9.363990 15.001600 21.534000
H 9.993600 14.183200 21.458800
H 10.831500 14.659800 20.679900
H 10.844300 13.739200 21.070300
H 9.338400 16.842700 20.753200
H 9.124170 15.975100 21.275800
H 10.091400 15.291000 20.911800
H 10.793100 17.421500 19.508700
H 9.949290 17.372200 20.106400
H 13.442500 10.080300 1.137840
H 13.432500 10.100100 1.124810
H 13.442000 10.101400 1.162790
H 13.945000 10.896500 0.803806
H 14.566300 11.374800 1.424590
H 13.996500 10.417000 1.978170
475
Atoms. Timestep: 50000
H 11.714000 15.177100 2.401330
H 11.706600 15.182500 2.398340
H 11.712300 15.181100 2.386300
H 13.000000 16.690400 2.133930
H 12.987000 16.698600 2.147580
H 12.980100 16.702500 2.137560
H 12.480600 15.797700 2.086690
H 12.484700 15.794600 2.072100
H 12.472500 15.802100 2.079790
H 12.244400 16.776500 2.810910
H 12.248500 16.771100 2.817870
H 12.004900 16.321300 2.773790
H 11.607700 16.016500 2.941300
H 11.612000 16.010300 2.944740
H 12.842200 16.978500 27.412900
H 12.855800 16.988500 27.416900
H 14.346400 15.761000 26.896000
H 13.435200 16.248800 26.979700
H 14.482700 16.431700 27.625100
H 13.443600 16.262200 26.971200
H 14.341100 15.751900 26.914000
H 14.472000 16.434900 27.632600
H 15.322200 15.619300 27.211500
H 16.101900 15.891300 27.852300
H 15.317100 15.621100 27.233400
H 16.109600 15.875000 27.833200
H 12.796700 14.963100 28.315900
H 12.803900 14.971900 28.304700
H 12.828500 14.976000 28.294800
H 12.837900 14.963100 28.298400
H 14.710500 14.335100 28.512400
H 14.691900 14.337700 28.486900
H 14.683300 14.327300 28.507300
H 14.727200 14.340600 28.505900
H 14.371900 15.091200 29.072500
H 13.728700 14.471200 28.213500
H 13.742900 14.468000 28.211300
H 13.704700 14.471400 28.205200
H 13.696900 14.460400 28.222400
H 13.865900 15.155600 28.916500
H 13.890900 15.154300 28.923400
H 13.857700 15.150100 28.928500
H 15.510800 14.604200 29.111500
H 15.491500 14.599500 29.094200
H 15.527000 14.615100 29.103100
H 15.501000 14.606400 29.074200
H 12.149500 16.463100 29.428100
H 12.139000 16.474000 29.445600
H 13.121100 15.770200 29.198600
H 13.128900 15.772300 29.193300
H 13.146700 15.767000 29.189700
H 13.092300 16.167800 29.523700
H 12.223800 15.700700 28.762700
H 12.254700 15.693400 28.743800
H 12.251100 15.714400 28.734600
H 12.230800 15.704800 28.758700
H 12.131800 16.475500 29.443100
H 12.151300 16.488300 29.414900
H 13.430900 15.411700 28.963700
H 14.755000 15.219600 29.364400
H 14.782900 15.227800 29.369300
H 14.764000 15.223100 29.351000
H 14.018400 15.839700 29.634500
H 14.038800 15.840500 29.635600
H 14.033300 15.847300 29.632500
H 14.027100 15.839800 29.627800
H 14.974300 15.526800 29.741300
H 15.352400 16.504700 28.101700
H 15.364300 16.488700 28.093700
H 16.497500 16.459600 28.594500
H 16.484900 16.490300 28.604800
H 13.290100 16.456500 29.904500
H 13.294700 16.453300 29.901800
H 13.281900 16.459900 29.904700
H 14.925200 15.907300 30.062300
H 14.915700 15.909300 30.070500
H 13.694600 16.603400 30.192600
H 14.179200 16.529400 30.340600
H 14.188200 16.524000 30.339100
H 14.186700 16.526800 30.347700
H 14.635600 16.283000 30.301400
H 14.930900 15.914100 30.081500
H 15.239700 16.718000 30.972800
H 15.238000 16.718600 30.970300
H 15.250300 16.707800 30.950800
H 15.240200 16.716400 30.953200
H 15.915200 15.206400 29.850200
H 15.915100 15.205700 29.809900
H 15.928100 15.218000 29.843000
H 15.905000 15.204000 29.825900
H 15.823400 15.974800 30.496800
H 15.822900 15.987700 30.527400
H 15.813100 15.978800 30.506400
H 15.815400 15.980300 30.530500
H 13.120100 17.628500 2.555230
H 13.097700 17.638400 2.567670
H 13.093500 17.642600 2.556180
H 12.322600 17.238300 3.015350
H 12.145500 17.610400 3.353870
H 12.146400 17.604400 3.361280
H 11.842800 17.765000 3.717040
H 12.782300 18.370400 3.223480
H 12.782900 18.365100 3.234400
H 12.812800 18.357400 3.223110
H 12.127100 18.684200 3.969130
H 12.160500 18.681900 3.958610
H 12.129800 18.690900 3.960650
H 13.722600 17.048300 27.882000
H 13.737400 17.045500 27.885500
H 13.128400 18.330000 28.875100
H 13.104100 18.344700 28.850000
H 12.740400 17.745400 28.113800
H 12.721100 17.745700 28.097400
H 13.873700 17.716200 28.614600
H 13.853600 17.731300 28.600500
H 13.915700 18.585700 29.496800
H 13.888800 18.614900 29.468800
H 14.619000 17.102500 28.354100
H 14.734000 17.801100 29.069700
H 14.755200 17.773200 29.083200
H 14.603000 17.118000 28.351100
H 16.363800 17.257500 29.289400
H 16.382100 17.216400 29.291400
H 15.483400 17.187700 28.820300
H 15.770800 17.987200 29.722500
H 15.794300 17.942800 29.737100
H 15.500500 17.159500 28.822700
H 12.550600 17.066000 30.168000
H 12.553100 17.073200 30.181300
H 13.350400 17.340500 30.765300
H 12.555700 17.090500 30.153600
H 12.545400 17.080000 30.174800
H 13.353600 17.352100 30.761800
H 13.362200 17.341900 30.768700
H 13.356000 17.359600 30.752600
H 14.864900 18.484100 29.788200
H 14.891500 18.444000 29.812300
H 14.334700 17.213100 31.059800
H 14.340000 17.219100 31.046700
H 14.349400 17.208200 31.050400
H 14.337800 17.223400 31.051600
H 15.245500 27.668000 2.595040
H 15.265200 27.640800 2.600220
H 15.265400 27.633300 2.595860
H 15.269600 27.335900 3.575310
H 15.288800 27.320400 3.584400
H 15.286500 27.309900 3.579110
H 15.523700 27.492300 4.577910
H 15.508800 27.494400 4.570040
H 15.520500 27.478100 4.573480
H 14.434900 23.690800 7.274460
H 14.422500 23.685400 7.277690
H 14.417400 23.690100 7.261460
H 15.369900 23.284300 7.393950
H 15.364700 23.288900 7.377300
H 15.386800 23.302900 7.397690
H 16.353500 23.382400 7.701690
H 15.437600 24.215800 7.751250
H 16.346900 23.384800 7.690090
H 16.366600 23.414400 7.712970
H 14.956200 24.417200 7.686920
H 14.962900 24.429000 7.694450
H 13.766000 24.474400 7.376300
H 13.758800 24.481100 7.373630
H 13.765300 24.478200 7.384060
H 13.559200 25.443500 7.675930
H 13.565500 25.449700 7.683740
H 13.574400 25.450400 7.684560
H 14.635300 24.812800 7.746310
H 15.928800 24.290800 7.913710
H 15.921000 24.264600 7.901230
H 14.530300 25.297000 7.898050
H 14.525000 25.305300 7.895190
H 14.703000 25.744300 8.103610
H 15.069100 26.024100 8.323510
H 15.053000 26.043500 8.315180
H 15.505300 25.147400 8.108560
H 15.490900 25.167100 8.114450
H 15.495000 25.144300 8.112370
H 16.307600 24.550400 8.113500
H 16.459800 24.991700 8.326680
H 16.456700 25.028900 8.333700
H 16.375300 25.481900 8.470810
H 16.018800 25.905300 8.534440
H 16.033900 25.871400 8.537820
H 15.573000 26.078900 8.465860
H 13.889200 26.336500 8.108700
H 13.900800 26.341300 8.098670
H 13.870000 26.338600 8.093060
H 14.657100 26.912300 8.515420
H 14.615100 26.919800 8.515920
H 14.643200 26.903900 8.534640
H 15.625400 26.999800 8.847440
H 15.640700 27.010400 8.823160
H 15.594900 27.031400 8.831200
H 16.588100 26.609300 8.939420
H 16.572700 26.598500 8.963270
H 16.546800 26.643400 8.954430
H 16.554500 27.228500 11.675000
H 16.332900 27.526800 12.641300
H 16.341800 27.507100 12.655000
H 16.528700 27.214600 11.716600
H 16.555200 27.211200 11.686200
H 16.552000 27.236000 11.689800
H 16.331500 27.516200 12.687100
H 16.345400 27.543700 12.656500
H 16.673500 27.823100 13.597900
H 16.663400 27.782800 13.599700
H 16.646300 27.801600 13.589000
H 16.668700 27.794400 13.625600
H 15.462900 28.361800 1.887210
H 15.459500 28.367700 1.889090
H 15.442900 28.401700 1.891870
H 15.819400 29.306300 1.641540
H 15.825900 29.300000 1.643020
H 15.808900 29.340500 1.654220
H 16.248600 30.205200 1.923910
H 16.257300 30.196700 1.928730
H 16.245500 30.232800 1.945780
H 15.658800 28.417500 3.112130
H 15.671500 28.399300 3.109720
H 15.673200 28.389100 3.108250
H 15.940500 29.253800 2.641720
H 15.948600 29.232100 2.630380
H 15.953500 29.222500 2.631830
H 16.077800 29.157900 3.619220
H 16.072200 29.167000 3.629220
H 16.081000 29.144900 3.620630
H 15.790500 28.330700 4.099630
H 15.800800 28.325100 4.098560
H 15.800700 28.311500 4.097050
H 11.561100 29.973300 2.499350
H 11.685400 30.003400 3.504530
H 11.681300 30.000700 3.491740
H 11.992800 30.894400 2.691710
H 11.996700 30.902600 2.710510
H 12.373300 31.588800 3.388140
H 12.373200 31.583400 3.364350
H 12.088000 30.807100 3.942770
H 12.087300 30.805700 3.924240
H 11.568100 29.981400 2.511670
H 16.866900 30.995300 3.654040
H 16.875400 30.979900 3.662160
H 16.361200 29.978200 3.144210
H 16.353900 30.003300 3.158820
H 16.354900 29.990600 3.139880
H 16.641500 30.811600 2.667790
H 16.632000 30.823400 2.660540
H 16.635600 30.839600 2.688410
H 16.485500 29.916500 4.146320
H 16.488700 29.900700 4.133020
H 16.484100 29.916400 4.128720
H 16.874800 30.998100 3.683140
H 16.336000 28.989700 5.598250
H 16.336300 29.009400 5.596900
H 16.335500 28.993400 5.604230
H 16.208500 29.067300 4.609440
H 16.203800 29.080200 4.616730
H 16.207100 29.083600 4.608060
H 15.898900 28.101100 5.312670
H 15.907100 28.110600 5.314530
H 15.904600 28.093000 5.312530
H 11.801400 30.028000 4.484130
H 11.802700 30.025400 4.497400
H 11.920000 30.047400 5.490260
H 11.921500 30.055400 5.476520
H 12.205300 30.829100 4.935630
H 12.207400 30.833100 4.916630
H 16.898900 30.666000 4.663410
H 16.896500 30.656400 4.645400
H 16.890500 30.674900 4.638220
H 16.696200 29.948000 5.349360
H 16.701500 29.932300 5.366580
H 16.699100 29.928000 5.354060
H 12.597000 31.856000 4.363000
H 12.600400 31.855600 4.337030
H 12.613500 31.638100 5.349130
H 12.607800 31.632800 5.373870
H 11.610000 29.161600 6.276550
H 11.608700 29.148200 6.284290
H 12.403000 30.978800 6.149890
H 12.409000 30.989200 6.129450
H 12.037200 30.069400 6.483120
H 12.041700 30.082700 6.468910
H 14.138700 7.577950 9.477160
H 14.169900 7.575240 9.472480
H 13.234600 7.971180 9.271960
H 13.204400 7.980270 9.284590
H 12.328100 8.343340 9.606040
H 12.302700 8.357100 9.626330
H 14.855200 7.257960 10.152400
H 14.883500 7.261610 10.153900
H 14.090700 7.571560 10.715500
H 14.112800 7.572010 10.710500
H 15.162000 7.106020 11.129500
H 15.184000 7.114320 11.133500
H 13.342200 7.882420 11.267100
H 13.265200 7.932720 10.281600
H 13.288400 7.926800 10.269500
H 13.326100 7.885170 11.278600
H 11.675300 8.607480 10.410800
H 12.500700 8.246330 10.844700
H 12.517800 8.237200 10.826200
H 11.693300 8.591990 10.385200
H 14.976900 7.162860 12.146500
H 14.991100 7.172840 12.149000
H 14.349400 7.413240 12.931000
H 14.356400 7.421500 12.928200
H 13.396100 7.838030 12.264700
H 13.386900 7.837620 12.275700
H 13.449900 7.793650 13.262300
H 13.447700 7.790070 13.272700
H 14.166700 7.527630 11.708100
H 14.151500 7.524010 11.712600
H 12.513500 8.192390 13.080100
H 12.514600 8.189590 13.061700
H 11.796900 8.512380 12.404800
H 11.801000 8.503220 12.380300
H 12.561500 8.198780 11.841700
H 12.571600 8.192820 11.823700
H 16.166000 11.149700 23.010400
H 16.704300 10.279700 23.151200
H 16.705700 10.276800 23.154200
H 16.702200 10.275500 23.152100
H 16.174500 11.153300 23.008600
H 16.174300 11.156200 23.000600
H 11.558900 14.949100 20.057600
H 12.299000 14.317900 19.825700
H 11.688200 13.788500 20.472500
H 12.513300 15.185600 19.303200
H 12.273500 16.159100 19.044900
H 11.643800 16.977400 19.120200
H 11.546100 15.869700 19.667200
H 16.095300 12.184000 23.096600
H 16.095000 12.180700 23.108600
H 16.081700 12.176400 23.113400
H 16.488600 13.083600 23.427500
H 16.488500 13.087700 23.413500
H 16.471700 13.080400 23.433500
H 16.977700 11.948400 23.517000
H 20.362600 1.167460 9.798080
H 20.389900 1.173060 9.793610
H 22.181700 0.715285 10.495500
H 22.273800 1.643170 10.856800
H 20.730200 2.037650 10.250200
H 20.698400 2.034760 10.252900
H 21.298200 0.941449 10.142000
H 21.440100 1.375020 10.374200
H 21.836300 1.628140 10.630700
H 22.206500 0.709838 10.490300
H 22.365900 2.571050 11.218200
H 22.400400 2.563130 11.216800
H 21.431700 2.548510 10.772600
H 21.466100 2.546450 10.771100
H 19.191600 5.664820 4.217240
H 19.236300 5.648840 4.202100
H 20.108400 5.640750 3.736820
H 20.150400 5.634390 3.716270
H 19.771100 0.976772 5.255220
H 19.765700 0.981069 5.228160
H 19.748500 0.997196 5.248100
H 19.815700 1.928750 5.641940
H 19.811200 1.949070 5.650350
H 19.829400 1.931470 5.651400
H 20.662500 1.024210 5.668380
H 20.651300 1.038260 5.676210
H 20.673800 1.024860 5.682790
H 21.868900 1.912620 6.568030
H 21.850300 1.914670 6.567390
H 21.843100 1.899630 6.584910
H 21.559400 1.067360 6.108610
H 22.456900 1.120370 6.532430
H 20.946200 1.856490 6.144690
H 20.947500 1.873610 6.139280
H 21.576500 1.072940 6.110360
H 22.456300 1.110500 6.548830
H 20.966200 1.864540 6.140460
H 21.554100 1.079310 6.104320
H 20.333000 2.645620 6.180770
H 20.355900 2.656130 6.170560
H 20.341000 2.667900 6.174240
H 21.195800 2.961070 6.679400
H 21.178900 2.939590 6.700260
H 21.209400 2.956580 6.673590
H 22.161300 2.752300 7.025700
H 22.126800 2.731900 7.061220
H 22.146600 2.750020 7.030460
H 20.430300 6.828520 3.883330
H 20.465600 6.823030 3.870260
H 20.781100 7.762750 3.948120
H 13.626500 11.488800 31.544700
H 13.614700 11.508100 31.518400
H 13.619500 11.493000 31.533700
H 13.228500 10.720300 32.112800
H 13.159500 10.200600 32.989100
H 13.215100 10.736500 32.081100
H 13.160900 10.212500 33.012500
H 13.224300 10.717700 32.094600
H 13.148400 10.221100 32.976500
H 13.836300 11.214700 32.701900
H 13.840800 11.199600 32.717300
H 13.845300 11.206800 32.731600
H 15.079000 12.179800 1.129150
H 15.073700 12.163300 1.122890
H 15.078900 12.171100 1.103580
H 15.295000 11.869800 2.306460
H 15.300500 11.877700 2.287100
H 15.297700 11.897800 2.315980
H 15.690200 12.645200 1.745620
H 15.700100 12.649400 1.724360
H 15.695800 12.666300 1.747890
H 15.755000 13.162200 0.851067
H 15.766800 13.164700 0.828943
H 15.763400 13.174100 0.848223
H 14.240200 12.329300 31.439100
H 14.248500 12.312100 31.460400
H 14.239100 12.318800 31.456900
H 14.917200 12.973800 31.884700
H 14.927800 12.969600 31.882500
H 14.924000 12.979900 31.864500
H 14.348200 12.000100 32.398500
H 14.348900 12.011100 32.380900
H 14.355300 12.002700 32.405400
H 14.970200 12.489300 33.001700
H 14.972200 12.489200 33.024100
H 14.964700 12.482000 33.021200
H 14.457300 11.681400 33.340000
H 14.457600 11.692900 33.322700
H 14.462100 11.693300 33.350300
H 15.482200 13.285100 32.697900
H 15.482700 13.285700 32.680700
H 15.472100 13.282600 32.702400
H 17.901000 2.081050 25.121900
H 18.088000 1.063400 25.157500
H 18.192600 1.378930 26.100600
H 17.820300 2.995110 25.601200
H 18.431100 0.728612 26.821900
H 18.058700 2.344790 26.322500
H 18.535700 1.044140 27.765000
H 18.297200 1.694460 27.043700
H 17.867300 3.560660 26.467100
H 18.163400 2.660310 27.265600
H 18.029500 3.626170 27.487500
H 18.693400 1.307880 28.965600
H 18.506500 2.325520 28.930000
H 18.401900 2.009990 27.986900
H 18.263500 3.174070 28.389000
H 22.333800 0.850473 1.383270
H 22.315600 0.858668 1.399110
H 22.160500 1.855490 1.631740
H 22.163100 1.840920 1.631610
H 19.788500 0.939464 11.644700
H 19.809400 0.938538 11.623300
H 20.118200 1.827420 12.055000
H 20.100700 1.834290 12.061400
H 20.850800 1.194690 12.229700
H 20.866500 1.185260 12.221200
H 21.670300 1.501420 12.713900
H 21.681800 1.484950 12.716700
H 22.420400 0.861825 12.882200
H 20.815000 2.386350 12.568300
H 20.828000 2.372170 12.575700
H 22.430100 0.842789 12.882900
H 21.748700 2.426820 13.046000
H 21.739700 2.447730 13.029600
H 22.173400 0.789289 30.668600
H 22.163700 0.816872 30.700900
H 22.066200 1.800130 30.864900
H 22.068900 1.832830 30.876000
H 16.956600 8.165220 31.980100
H 16.949200 8.165640 31.936700
H 16.938700 8.162220 31.989900
H 16.963400 12.340500 21.382000
H 16.943400 12.357000 21.374800
H 16.975200 12.364400 21.384500
